@<TRIPOS>MOLECULE
1191-95-3.out
 11 11 0 0 0
SMALL
MULLIKEN_CHARGES
****
Gaussian opt/cluster/programs/g09/g09_d.01/g09//g09 # opt freq b3lyp/aug-cc-pvtz EmpiricalDispersion=GD3 geom=connectivity
@<TRIPOS>ATOM
      1 C          -1.7768    0.6678    0.0034 C.3     1  UNL1        0.0062
      2 C          -1.8438   -0.8876    0.0902 C.3     1  UNL1       -0.0397
      3 C          -0.3002   -0.9761   -0.1010 C.3     1  UNL1        0.0062
      4 C          -0.2561    0.5469   -0.0422 C.2     1  UNL1        0.1334
      5 H          -2.1842    1.0942   -0.9147 H       1  UNL1        0.0342
      6 H          -2.1622    1.2376    0.8487 H       1  UNL1        0.0342
      7 H          -2.4335   -1.3658   -0.6872 H       1  UNL1        0.0273
      8 H          -2.1790   -1.2490    1.0593 H       1  UNL1        0.0273
      9 H           0.0273   -1.3585   -1.0687 H       1  UNL1        0.0342
     10 H           0.2875   -1.4752    0.6682 H       1  UNL1        0.0342
     11 O           0.6385    1.3504    0.0027 O.2     1  UNL1       -0.2974
@<TRIPOS>BOND
     1     9     3    1
     2     5     1    1
     3     7     2    1
     4     3     4    1
     5     3     2    1
     6     3    10    1
     7     4    11    2
     8     4     1    1
     9     1     2    1
    10     1     6    1
    11     2     8    1
