@<TRIPOS>MOLECULE
132-64-9.out
 24 25 0 0 0
SMALL
MULLIKEN_CHARGES
****
Gaussian opt/cluster/programs/g09/g09_d.01/g09//g09 # opt freq b3lyp/aug-cc-pvtz EmpiricalDispersion=GD3 geom=connectivity
@<TRIPOS>ATOM
      1 C          -2.5499   -2.1358    0.0147 C.ar    1  UNL1       -0.3553
      2 C          -3.1723   -0.8822   -0.0177 C.ar    1  UNL1       -0.2899
      3 C          -2.4320    0.2959   -0.0382 C.ar    1  UNL1       -0.6688
      4 C          -1.0584    0.1537   -0.0246 C.ar    1  UNL1        0.6251
      5 C          -0.4031   -1.0835    0.0070 C.ar    1  UNL1        0.7688
      6 C          -1.1662   -2.2497    0.0272 C.ar    1  UNL1       -1.0584
      7 H          -3.1595   -3.0286    0.0296 H       1  UNL1        0.5069
      8 H          -4.2520   -0.8257   -0.0280 H       1  UNL1        0.3588
      9 H          -2.8911    1.2736   -0.0635 H       1  UNL1        0.4852
     10 H          -0.6914   -3.2210    0.0516 H       1  UNL1        0.1193
     11 C           1.0985    0.6203   -0.0229 C.ar    1  UNL1        0.2347
     12 C           2.2948    1.3100   -0.0342 C.ar    1  UNL1       -0.5425
     13 C           3.4558    0.5432   -0.0112 C.ar    1  UNL1       -0.2133
     14 C           3.4033   -0.8547    0.0211 C.ar    1  UNL1       -0.3438
     15 C           2.1877   -1.5263    0.0308 C.ar    1  UNL1       -1.1033
     16 C           1.0123   -0.7781    0.0084 C.ar    1  UNL1        0.7232
     17 H           2.3216    2.3895   -0.0625 H       1  UNL1        0.3961
     18 H           4.4165    1.0392   -0.0197 H       1  UNL1        0.3493
     19 H           4.3258   -1.4184    0.0378 H       1  UNL1        0.5196
     20 H           2.1537   -2.6068    0.0544 H       1  UNL1        0.1086
     21 O          -0.1526    1.1975   -0.0415 O.2     1  UNL1       -0.6363
     22 O          -1.7877    3.6418   -0.0224 O.3     2  HOH2       -0.4448
     23 H          -1.6603    4.2054    0.7454 H       0  HOH0        0.1250
     24 H          -1.0645    3.0020    0.0046 H       0  HOH0        0.3360
@<TRIPOS>BOND
     1     9     3    1
     2    17    12    1
     3    21     4   ar
     4    21    11   ar
     5     3     4   ar
     6     3     2   ar
     7    12    11   ar
     8    12    13   ar
     9     8     2    1
    10     4     5   ar
    11    11    16   ar
    12    22    24    1
    13    22    23    1
    14    18    13    1
    15     2     1   ar
    16    13    14   ar
    17     5    16   ar
    18     5     6   ar
    19    16    15   ar
    20     1     6   ar
    21     1     7    1
    22    14    15   ar
    23    14    19    1
    24     6    10    1
    25    15    20    1
