@<TRIPOS>MOLECULE
132-64-9.out
 21 23 0 0 0
SMALL
MULLIKEN_CHARGES
****
Gaussian opt/cluster/programs/g09/g09_d.01/g09//g09 # opt freq b3lyp/aug-cc-pvtz EmpiricalDispersion=GD3 geom=connectivity
@<TRIPOS>ATOM
      1 C          -2.5499   -2.1358    0.0147 C.ar    1  UNL1       -0.0610
      2 C          -3.1723   -0.8822   -0.0177 C.ar    1  UNL1       -0.0582
      3 C          -2.4320    0.2959   -0.0382 C.ar    1  UNL1       -0.0187
      4 C          -1.0584    0.1537   -0.0246 C.ar    1  UNL1        0.1362
      5 C          -0.4031   -1.0835    0.0070 C.ar    1  UNL1        0.0279
      6 C          -1.1662   -2.2497    0.0272 C.ar    1  UNL1       -0.0504
      7 H          -3.1595   -3.0286    0.0296 H       1  UNL1        0.0618
      8 H          -4.2520   -0.8257   -0.0280 H       1  UNL1        0.0619
      9 H          -2.8911    1.2736   -0.0635 H       1  UNL1        0.0654
     10 H          -0.6914   -3.2210    0.0516 H       1  UNL1        0.0625
     11 C           1.0985    0.6203   -0.0229 C.ar    1  UNL1        0.1362
     12 C           2.2948    1.3100   -0.0342 C.ar    1  UNL1       -0.0187
     13 C           3.4558    0.5432   -0.0112 C.ar    1  UNL1       -0.0582
     14 C           3.4033   -0.8547    0.0211 C.ar    1  UNL1       -0.0610
     15 C           2.1877   -1.5263    0.0308 C.ar    1  UNL1       -0.0504
     16 C           1.0123   -0.7781    0.0084 C.ar    1  UNL1        0.0279
     17 H           2.3216    2.3895   -0.0625 H       1  UNL1        0.0654
     18 H           4.4165    1.0392   -0.0197 H       1  UNL1        0.0619
     19 H           4.3258   -1.4184    0.0378 H       1  UNL1        0.0618
     20 H           2.1537   -2.6068    0.0544 H       1  UNL1        0.0625
     21 O          -0.1526    1.1975   -0.0415 O.2     1  UNL1       -0.4548
@<TRIPOS>BOND
     1     9     3    1
     2    17    12    1
     3    21     4   ar
     4    21    11   ar
     5     3     4   ar
     6     3     2   ar
     7    12    11   ar
     8    12    13   ar
     9     8     2    1
    10     4     5   ar
    11    11    16   ar
    12    18    13    1
    13     2     1   ar
    14    13    14   ar
    15     5    16   ar
    16     5     6   ar
    17    16    15   ar
    18     1     6   ar
    19     1     7    1
    20    14    15   ar
    21    14    19    1
    22     6    10    1
    23    15    20    1
