@<TRIPOS>MOLECULE
2406-25-9.out
 13 11 0 0 0
SMALL
GASTEIGER
****
Gaussian opt/cluster/programs/g09/g09_d.01/g09//g09 # opt freq b3lyp/aug-cc-pvtz EmpiricalDispersion=GD3 geom=connectivity
@<TRIPOS>ATOM
      1 O           0.0849   -1.0059    0.0811 O.3     1  UNL1       -0.1199
      2 N          -0.7386   -0.0494   -0.1360 N.3     1  UNL1       -0.1602
      3 C          -2.1580   -0.3444   -0.0063 C.3     1  UNL1        0.0156
      4 H          -2.7385    0.3657   -0.5934 H       1  UNL1        0.0415
      5 H          -2.3258   -1.3554   -0.3658 H       1  UNL1        0.0415
      6 H          -2.4666   -0.2786    1.0424 H       1  UNL1        0.0415
      7 C          -0.2799    1.3252    0.0292 C.3     1  UNL1        0.0156
      8 H           0.7442    1.3953   -0.3257 H       1  UNL1        0.0415
      9 H          -0.9245    1.9933   -0.5396 H       1  UNL1        0.0415
     10 H          -0.3125    1.6086    1.0862 H       1  UNL1        0.0415
     11 O           2.7321   -0.0096    0.0117 O.3     2  HOH2       -0.4105
     12 H           1.8931   -0.5035    0.0547 H       0  HOH0        0.2052
     13 H           3.3921   -0.6405   -0.2862 H       0  HOH0        0.2052
@<TRIPOS>BOND
     1     4     3    1
     2     9     7    1
     3     5     3    1
     4     8     7    1
     5    13    11    1
     6     2     3    1
     7     2     7    1
     8     2     1    1
     9     3     6    1
    10    11    12    1
    11     7    10    1
