@<TRIPOS>MOLECULE
288-32-4.out
 12 11 0 0 0
SMALL
MULLIKEN_CHARGES
****
Gaussian opt/cluster/programs/g09/g09_d.01/g09//g09 # opt freq b3lyp/aug-cc-pvtz EmpiricalDispersion=GD3 geom=connectivity
@<TRIPOS>ATOM
      1 C           0.6628    1.1537    0.0067 C.ar    1  UNL1       -0.2790
      2 C           0.2714   -0.9570    0.0357 C.ar    1  UNL1       -0.4366
      3 C           1.8858    0.5463   -0.0279 C.ar    1  UNL1       -0.3261
      4 H           0.4416    2.2065    0.0027 H       1  UNL1        0.4859
      5 H          -0.2131   -1.9182    0.0547 H       1  UNL1        0.5211
      6 H           2.8868    0.9352   -0.0641 H       1  UNL1        0.4560
      7 N           1.6208   -0.8048   -0.0088 N.ar    1  UNL1       -0.1074
      8 H           2.3008   -1.5441   -0.0279 H       1  UNL1        0.0782
      9 N          -0.3336    0.2071    0.0466 N.ar    1  UNL1       -0.3428
     10 O          -3.1899   -0.0509   -0.1194 O.3     2  HOH2       -0.4558
     11 H          -3.5915    0.3036    0.6778 H       0  HOH0        0.1330
     12 H          -2.2362    0.1502   -0.0394 H       0  HOH0        0.2735
@<TRIPOS>BOND
     1    10    12    1
     2    10    11    1
     3     6     3    1
     4     8     7    1
     5     3     7   ar
     6     3     1   ar
     7     7     2   ar
     8     4     1    1
     9     1     9   ar
    10     2     9   ar
    11     2     5    1
