@<TRIPOS>MOLECULE
288-32-4.out
 9 9 0 0 0
SMALL
MULLIKEN_CHARGES
****
Gaussian opt/cluster/programs/g09/g09_d.01/g09//g09 # opt freq b3lyp/aug-cc-pvtz EmpiricalDispersion=GD3 geom=connectivity
@<TRIPOS>ATOM
      1 C           0.6628    1.1537    0.0067 C.ar    1  UNL1        0.0452
      2 C           0.2714   -0.9570    0.0357 C.ar    1  UNL1        0.0933
      3 C           1.8858    0.5463   -0.0279 C.ar    1  UNL1        0.0210
      4 H           0.4416    2.2065    0.0027 H       1  UNL1        0.0845
      5 H          -0.2131   -1.9182    0.0547 H       1  UNL1        0.1026
      6 H           2.8868    0.9352   -0.0641 H       1  UNL1        0.0822
      7 N           1.6208   -0.8048   -0.0088 N.ar    1  UNL1       -0.3508
      8 H           2.3008   -1.5441   -0.0279 H       1  UNL1        0.1662
      9 N          -0.3336    0.2071    0.0466 N.ar    1  UNL1       -0.2443
@<TRIPOS>BOND
     1     6     3    1
     2     8     7    1
     3     3     7   ar
     4     3     1   ar
     5     7     2   ar
     6     4     1    1
     7     1     9   ar
     8     2     9   ar
     9     2     5    1
