@<TRIPOS>MOLECULE
327-54-8.out
 15 14 0 0 0
SMALL
MULLIKEN_CHARGES
****
Gaussian opt/cluster/programs/g09/g09_d.01/g09//g09 # opt freq b3lyp/aug-cc-pvtz EmpiricalDispersion=GD3 geom=connectivity
@<TRIPOS>ATOM
      1 C          -0.8023    0.6024    0.0002 C.ar    1  UNL1        0.7539
      2 C          -0.5303   -0.7535    0.0003 C.ar    1  UNL1       -0.8176
      3 C           0.7922   -1.1595    0.0002 C.ar    1  UNL1        0.5350
      4 C           1.8209   -0.2264   -0.0001 C.ar    1  UNL1        0.4955
      5 C           1.5433    1.1290   -0.0002 C.ar    1  UNL1       -0.7038
      6 C           0.2217    1.5379   -0.0000 C.ar    1  UNL1        0.5084
      7 H          -1.3359   -1.4736    0.0006 H       1  UNL1        0.5821
      8 H           2.3431    1.8538   -0.0005 H       1  UNL1        0.3897
      9 F           3.0944   -0.6460   -0.0003 F       1  UNL1       -0.4148
     10 F           1.0904   -2.4664    0.0003 F       1  UNL1       -0.4362
     11 F          -2.0803    1.0340    0.0005 F       1  UNL1       -0.4596
     12 F          -0.0746    2.8463   -0.0001 F       1  UNL1       -0.4171
     13 O          -3.6605   -1.4742   -0.0006 O.3     2  HOH2       -0.3814
     14 H          -4.5765   -1.7654   -0.0005 H       0  HOH0        0.1202
     15 H          -3.6895   -0.5117   -0.0003 H       0  HOH0        0.2457
@<TRIPOS>BOND
     1    13    14    1
     2    13    15    1
     3     8     5    1
     4     9     4    1
     5     5     4   ar
     6     5     6   ar
     7     4     3   ar
     8    12     6    1
     9     6     1   ar
    10     3    10    1
    11     3     2   ar
    12     1     2   ar
    13     1    11    1
    14     2     7    1
