@<TRIPOS>MOLECULE
327-54-8.out
 12 12 0 0 0
SMALL
MULLIKEN_CHARGES
****
Gaussian opt/cluster/programs/g09/g09_d.01/g09//g09 # opt freq b3lyp/aug-cc-pvtz EmpiricalDispersion=GD3 geom=connectivity
@<TRIPOS>ATOM
      1 C          -0.8023    0.6024    0.0002 C.ar    1  UNL1        0.1613
      2 C          -0.5303   -0.7535    0.0003 C.ar    1  UNL1        0.0145
      3 C           0.7922   -1.1595    0.0002 C.ar    1  UNL1        0.1613
      4 C           1.8209   -0.2264   -0.0001 C.ar    1  UNL1        0.1613
      5 C           1.5433    1.1290   -0.0002 C.ar    1  UNL1        0.0145
      6 C           0.2217    1.5379   -0.0000 C.ar    1  UNL1        0.1613
      7 H          -1.3359   -1.4736    0.0006 H       1  UNL1        0.0677
      8 H           2.3431    1.8538   -0.0005 H       1  UNL1        0.0677
      9 F           3.0944   -0.6460   -0.0003 F       1  UNL1       -0.2024
     10 F           1.0904   -2.4664    0.0003 F       1  UNL1       -0.2024
     11 F          -2.0803    1.0340    0.0005 F       1  UNL1       -0.2024
     12 F          -0.0746    2.8463   -0.0001 F       1  UNL1       -0.2024
@<TRIPOS>BOND
     1     8     5    1
     2     9     4    1
     3     5     4   ar
     4     5     6   ar
     5     4     3   ar
     6    12     6    1
     7     6     1   ar
     8     3    10    1
     9     3     2   ar
    10     1     2   ar
    11     1    11    1
    12     2     7    1
