@<TRIPOS>MOLECULE
611-20-1.out
 14 14 0 0 0
SMALL
MULLIKEN_CHARGES
****
Gaussian opt/cluster/programs/g09/g09_d.01/g09//g09 # opt freq b3lyp/aug-cc-pvtz EmpiricalDispersion=GD3
@<TRIPOS>ATOM
      1 C          -1.5290   -1.4032    0.0117 C.ar    1  UNL1       -0.0189
      2 C          -2.6915   -0.6570   -0.0087 C.ar    1  UNL1       -0.0582
      3 C          -2.6498    0.7394   -0.0248 C.ar    1  UNL1       -0.0603
      4 C          -1.4255    1.3744   -0.0172 C.ar    1  UNL1       -0.0408
      5 C          -0.2331    0.6313    0.0056 C.ar    1  UNL1        0.0931
      6 C          -0.2758   -0.7803    0.0173 C.ar    1  UNL1        0.1342
      7 H          -1.5539   -2.4833    0.0213 H       1  UNL1        0.0654
      8 H          -3.6458   -1.1662   -0.0139 H       1  UNL1        0.0619
      9 H          -3.5624    1.3168   -0.0423 H       1  UNL1        0.0618
     10 H          -1.3631    2.4534   -0.0272 H       1  UNL1        0.0631
     11 O           0.7964   -1.5816    0.0393 O.3     1  UNL1       -0.5055
     12 H           1.6740   -1.1402   -0.0103 H       1  UNL1        0.2922
     13 C           1.0132    1.3136    0.0254 C.1     1  UNL1        0.1028
     14 N           2.0406    1.8390    0.0468 N.1     1  UNL1       -0.1907
@<TRIPOS>BOND
     1     9     3    1
     2    10     4    1
     3     3     4   ar
     4     3     2   ar
     5     4     5   ar
     6     8     2    1
     7    12    11    1
     8     2     1   ar
     9     5     6   ar
    10     5    13    1
    11     1     6   ar
    12     1     7    1
    13     6    11    1
    14    13    14    3
