@<TRIPOS>MOLECULE
611-20-1.out
 17 16 0 0 0
SMALL
MULLIKEN_CHARGES
****
Gaussian opt/cluster/programs/g09/g09_d.01/g09//g09 # opt freq b3lyp/aug-cc-pvtz EmpiricalDispersion=GD3
@<TRIPOS>ATOM
      1 C          -1.5290   -1.4032    0.0117 C.ar    1  UNL1       -0.4577
      2 C          -2.6915   -0.6570   -0.0087 C.ar    1  UNL1       -0.3464
      3 C          -2.6498    0.7394   -0.0248 C.ar    1  UNL1       -0.2348
      4 C          -1.4255    1.3744   -0.0172 C.ar    1  UNL1       -1.1445
      5 C          -0.2331    0.6313    0.0056 C.ar    1  UNL1        1.4601
      6 C          -0.2758   -0.7803    0.0173 C.ar    1  UNL1        0.1505
      7 H          -1.5539   -2.4833    0.0213 H       1  UNL1        0.3783
      8 H          -3.6458   -1.1662   -0.0139 H       1  UNL1        0.3837
      9 H          -3.5624    1.3168   -0.0423 H       1  UNL1        0.3767
     10 H          -1.3631    2.4534   -0.0272 H       1  UNL1        0.2692
     11 O           0.7964   -1.5816    0.0393 O.3     1  UNL1       -0.6995
     12 H           1.6740   -1.1402   -0.0103 H       1  UNL1        0.2515
     13 C           1.0132    1.3136    0.0254 C.1     1  UNL1        0.3880
     14 N           2.0406    1.8390    0.0468 N.1     1  UNL1       -0.7921
     15 O           3.3917   -0.7137   -0.1363 O.3     2  HOH2       -0.3331
     16 H           4.0070   -1.0524    0.5204 H       0  HOH0        0.1310
     17 H           3.4040    0.2518   -0.0552 H       0  HOH0        0.2192
@<TRIPOS>BOND
     1    15    17    1
     2    15    16    1
     3     9     3    1
     4    10     4    1
     5     3     4   ar
     6     3     2   ar
     7     4     5   ar
     8     8     2    1
     9    12    11    1
    10     2     1   ar
    11     5     6   ar
    12     5    13    1
    13     1     6   ar
    14     1     7    1
    15     6    11    1
    16    13    14    3
