@<TRIPOS>MOLECULE
62-53-3.out
 17 16 0 0 0
SMALL
MULLIKEN_CHARGES
****
Gaussian opt/cluster/programs/g09/g09_d.01/g09//g09 # opt freq b3lyp/aug-cc-pvtz EmpiricalDispersion=GD3 geom=connectivity
@<TRIPOS>ATOM
      1 C           2.3399   -0.0565   -0.5817 C.ar    1  UNL1       -0.3417
      2 C           1.6849   -1.2263   -0.2120 C.ar    1  UNL1       -0.3149
      3 C           0.4317   -1.1778    0.3838 C.ar    1  UNL1       -0.8904
      4 C          -0.1869    0.0514    0.6232 C.ar    1  UNL1        1.4056
      5 C           0.4693    1.2255    0.2472 C.ar    1  UNL1       -0.8944
      6 C           1.7222    1.1675   -0.3482 C.ar    1  UNL1       -0.3060
      7 H           3.3158   -0.0982   -1.0443 H       1  UNL1        0.3851
      8 H           2.1508   -2.1868   -0.3873 H       1  UNL1        0.3776
      9 H          -0.0732   -2.0945    0.6618 H       1  UNL1        0.3563
     10 H          -0.0065    2.1832    0.4182 H       1  UNL1        0.3555
     11 H           2.2173    2.0868   -0.6308 H       1  UNL1        0.3749
     12 N          -1.4859    0.1028    1.1653 N.pl3   1  UNL1       -0.4531
     13 H          -1.7275   -0.6900    1.7415 H       1  UNL1       -0.0346
     14 H          -1.7031    0.9660    1.6412 H       1  UNL1       -0.0312
     15 O          -3.3713   -0.0786   -1.1187 O.3     2  HOH2       -0.4579
     16 H          -2.8228   -0.1564   -1.9039 H       0  HOH0        0.1432
     17 H          -2.7451   -0.0031   -0.3778 H       0  HOH0        0.3259
@<TRIPOS>BOND
     1    16    15    1
     2    15    17    1
     3     7     1    1
     4    11     6    1
     5     1     6   ar
     6     1     2   ar
     7     8     2    1
     8     6     5   ar
     9     2     3   ar
    10     5    10    1
    11     5     4   ar
    12     3     4   ar
    13     3     9    1
    14     4    12    1
    15    12    14    1
    16    12    13    1
