@<TRIPOS>MOLECULE
62-53-3.out
 14 14 0 0 0
SMALL
MULLIKEN_CHARGES
****
Gaussian opt/cluster/programs/g09/g09_d.01/g09//g09 # opt freq b3lyp/aug-cc-pvtz EmpiricalDispersion=GD3 geom=connectivity
@<TRIPOS>ATOM
      1 C           2.3399   -0.0565   -0.5817 C.ar    1  UNL1       -0.0616
      2 C           1.6849   -1.2263   -0.2120 C.ar    1  UNL1       -0.0600
      3 C           0.4317   -1.1778    0.3838 C.ar    1  UNL1       -0.0410
      4 C          -0.1869    0.0514    0.6232 C.ar    1  UNL1        0.0245
      5 C           0.4693    1.2255    0.2472 C.ar    1  UNL1       -0.0410
      6 C           1.7222    1.1675   -0.3482 C.ar    1  UNL1       -0.0600
      7 H           3.3158   -0.0982   -1.0443 H       1  UNL1        0.0618
      8 H           2.1508   -2.1868   -0.3873 H       1  UNL1        0.0618
      9 H          -0.0732   -2.0945    0.6618 H       1  UNL1        0.0636
     10 H          -0.0065    2.1832    0.4182 H       1  UNL1        0.0636
     11 H           2.2173    2.0868   -0.6308 H       1  UNL1        0.0618
     12 N          -1.4859    0.1028    1.1653 N.pl3   1  UNL1       -0.3580
     13 H          -1.7275   -0.6900    1.7415 H       1  UNL1        0.1423
     14 H          -1.7031    0.9660    1.6412 H       1  UNL1        0.1423
@<TRIPOS>BOND
     1     7     1    1
     2    11     6    1
     3     1     6   ar
     4     1     2   ar
     5     8     2    1
     6     6     5   ar
     7     2     3   ar
     8     5    10    1
     9     5     4   ar
    10     3     4   ar
    11     3     9    1
    12     4    12    1
    13    12    14    1
    14    12    13    1
