@<TRIPOS>MOLECULE
67-64-1.out
 13 11 0 0 0
SMALL
MULLIKEN_CHARGES
****
Gaussian opt/cluster/programs/g09/g09_d.01/g09//g09 # opt freq b3lyp/aug-cc-pvtz EmpiricalDispersion=GD3 geom=connectivity
@<TRIPOS>ATOM
      1 C          -0.7310   -0.0900   -0.0032 C.2     1  UNL1        0.6743
      2 O           0.0845   -0.9919   -0.0165 O.2     1  UNL1       -0.6925
      3 C          -0.3237    1.3626   -0.0017 C.3     1  UNL1       -0.6602
      4 H          -0.6557    1.8263   -0.9339 H       1  UNL1        0.2031
      5 H          -0.8270    1.8933    0.8089 H       1  UNL1        0.2035
      6 H           0.7533    1.4678    0.0919 H       1  UNL1        0.3104
      7 C          -2.2120   -0.3816    0.0100 C.3     1  UNL1       -0.6740
      8 H          -2.7130    0.1564   -0.7971 H       1  UNL1        0.2192
      9 H          -2.3883   -1.4494   -0.0858 H       1  UNL1        0.2031
     10 H          -2.6452   -0.0211    0.9459 H       1  UNL1        0.2186
     11 O           2.7537   -0.0128    0.0025 O.3     2  HOH2       -0.4303
     12 H           1.9189   -0.5119   -0.0087 H       0  HOH0        0.2978
     13 H           3.4516   -0.6700    0.0604 H       0  HOH0        0.1271
@<TRIPOS>BOND
     1     4     3    1
     2     8     7    1
     3     9     7    1
     4     2     1    2
     5    12    11    1
     6     1     3    1
     7     1     7    1
     8     3     6    1
     9     3     5    1
    10    11    13    1
    11     7    10    1
