@<TRIPOS>MOLECULE
67-64-1.out
 10 9 0 0 0
SMALL
MULLIKEN_CHARGES
****
Gaussian opt/cluster/programs/g09/g09_d.01/g09//g09 # opt freq b3lyp/aug-cc-pvtz EmpiricalDispersion=GD3 geom=connectivity
@<TRIPOS>ATOM
      1 C          -0.7310   -0.0900   -0.0032 C.2     1  UNL1        0.1273
      2 O           0.0845   -0.9919   -0.0165 O.2     1  UNL1       -0.2980
      3 C          -0.3237    1.3626   -0.0017 C.3     1  UNL1       -0.0063
      4 H          -0.6557    1.8263   -0.9339 H       1  UNL1        0.0306
      5 H          -0.8270    1.8933    0.8089 H       1  UNL1        0.0306
      6 H           0.7533    1.4678    0.0919 H       1  UNL1        0.0306
      7 C          -2.2120   -0.3816    0.0100 C.3     1  UNL1       -0.0063
      8 H          -2.7130    0.1564   -0.7971 H       1  UNL1        0.0306
      9 H          -2.3883   -1.4494   -0.0858 H       1  UNL1        0.0306
     10 H          -2.6452   -0.0211    0.9459 H       1  UNL1        0.0306
@<TRIPOS>BOND
     1     4     3    1
     2     8     7    1
     3     9     7    1
     4     2     1    2
     5     1     3    1
     6     1     7    1
     7     3     6    1
     8     3     5    1
     9     7    10    1
