@<TRIPOS>MOLECULE
98-86-2.out
 20 19 0 0 0
SMALL
MULLIKEN_CHARGES
****
Gaussian opt/cluster/programs/g09/g09_d.01/g09//g09 # opt freq b3lyp/aug-cc-pvtz EmpiricalDispersion=GD3 geom=connectivity
@<TRIPOS>ATOM
      1 C           2.6891    1.0366   -0.0025 C.ar    1  UNL1       -0.5973
      2 C           1.3071    1.1758   -0.0000 C.ar    1  UNL1       -0.5323
      3 C           0.4818    0.0474    0.0018 C.ar    1  UNL1        1.5135
      4 C           1.0681   -1.2231    0.0010 C.ar    1  UNL1       -0.8686
      5 C           2.4465   -1.3611   -0.0014 C.ar    1  UNL1       -0.5161
      6 C           3.2603   -0.2307   -0.0031 C.ar    1  UNL1       -0.2758
      7 H           3.3189    1.9157   -0.0038 H       1  UNL1        0.3328
      8 H           0.8792    2.1675    0.0003 H       1  UNL1        0.2890
      9 H           0.4226   -2.0895    0.0023 H       1  UNL1        0.3799
     10 H           2.8902   -2.3473   -0.0020 H       1  UNL1        0.3566
     11 H           4.3367   -0.3385   -0.0050 H       1  UNL1        0.3919
     12 C          -1.0080    0.1494    0.0043 C.2     1  UNL1        0.4981
     13 O          -1.6909   -0.8634    0.0061 O.2     1  UNL1       -0.9954
     14 C          -1.6513    1.5156    0.0045 C.3     1  UNL1       -0.6475
     15 H          -1.3347    2.0838    0.8808 H       1  UNL1        0.1936
     16 H          -1.3416    2.0805   -0.8764 H       1  UNL1        0.1944
     17 H          -2.7322    1.4153    0.0090 H       1  UNL1        0.2725
     18 O          -4.4817   -0.3529   -0.0171 O.3     2  HOH2       -0.4407
     19 H          -3.5699   -0.6925   -0.0058 H       0  HOH0        0.3370
     20 H          -5.0496   -1.1234    0.0608 H       0  HOH0        0.1146
@<TRIPOS>BOND
     1    16    14    1
     2    18    19    1
     3    18    20    1
     4    11     6    1
     5     7     1    1
     6     6     1   ar
     7     6     5   ar
     8     1     2   ar
     9    10     5    1
    10     5     4   ar
    11     2     8    1
    12     2     3   ar
    13     4     3   ar
    14     4     9    1
    15     3    12    1
    16    12    14    1
    17    12    13    2
    18    14    17    1
    19    14    15    1
