@<TRIPOS>MOLECULE
98-85-1.out
 19 19 0 0 0
SMALL
MULLIKEN_CHARGES
****
Gaussian opt/cluster/programs/g09/g09_d.01/g09//g09 # opt freq b3lyp/aug-cc-pvtz EmpiricalDispersion=GD3 geom=connectivity
@<TRIPOS>ATOM
      1 C          -2.1617   -0.2725   -1.0662 C.ar    1  UNL1       -0.0614
      2 C          -0.7821   -0.3040   -1.2565 C.ar    1  UNL1       -0.0561
      3 C           0.0873   -0.3656   -0.1689 C.ar    1  UNL1       -0.0194
      4 C          -0.4511   -0.3861    1.1197 C.ar    1  UNL1       -0.0561
      5 C          -1.8257   -0.3536    1.3133 C.ar    1  UNL1       -0.0614
      6 C          -2.6870   -0.2977    0.2198 C.ar    1  UNL1       -0.0617
      7 H          -2.8222   -0.2226   -1.9216 H       1  UNL1        0.0618
      8 H          -0.3775   -0.2742   -2.2608 H       1  UNL1        0.0621
      9 H           0.2210   -0.4109    1.9666 H       1  UNL1        0.0621
     10 H          -2.2282   -0.3700    2.3176 H       1  UNL1        0.0618
     11 H          -3.7577   -0.2700    0.3710 H       1  UNL1        0.0618
     12 C           1.5928   -0.4000   -0.3711 C.3     1  UNL1        0.0774
     13 O           2.2659    0.4926    0.5124 O.3     1  UNL1       -0.3875
     14 H           1.9075    1.3809    0.3647 H       1  UNL1        0.2102
     15 C           2.1664   -1.7887   -0.1203 C.3     1  UNL1       -0.0348
     16 H           1.9726   -2.0911    0.9091 H       1  UNL1        0.0258
     17 H           1.7130   -2.5200   -0.7892 H       1  UNL1        0.0258
     18 H           3.2439   -1.7772   -0.2813 H       1  UNL1        0.0258
     19 H           1.8002   -0.1165   -1.4107 H       1  UNL1        0.0641
@<TRIPOS>BOND
     1     8     2    1
     2     7     1    1
     3    19    12    1
     4     2     1   ar
     5     2     3   ar
     6     1     6   ar
     7    17    15    1
     8    12     3    1
     9    12    15    1
    10    12    13    1
    11    18    15    1
    12     3     4   ar
    13    15    16    1
    14     6    11    1
    15     6     5   ar
    16    14    13    1
    17     4     5   ar
    18     4     9    1
    19     5    10    1
